<?xml version="1.0" encoding="UTF-8"?>

<!-- generated on 2021-07-30 03:53:50 by Eclipse SUMO netedit Version 1.9.2
<configuration xmlns:xsi="http://www.w3.org/2001/XMLSchema-instance" xsi:noNamespaceSchemaLocation="http://sumo.dlr.de/xsd/netconvertConfiguration.xsd">

    <input>
        <sumo-net-file value="C:\Users\vislab\Sumo\2021-07-28-18-14-03%20-%20copy\osm.net.xml"/>
    </input>

    <output>
        <output-file value="C:\Users\vislab\Sumo\2021-07-28-18-14-03%20-%20copy\osm.net.xml"/>
        <output.street-names value="true"/>
    </output>

    <processing>
        <geometry.min-radius.fix.railways value="false"/>
        <geometry.max-grade.fix value="false"/>
        <offset.disable-normalization value="true"/>
        <lefthand value="false"/>
    </processing>

    <junctions>
        <no-turnarounds value="true"/>
        <junctions.corner-detail value="5"/>
        <junctions.limit-turn-speed value="5.5"/>
        <rectangular-lane-cut value="false"/>
    </junctions>

    <pedestrian>
        <walkingareas value="false"/>
    </pedestrian>

    <report>
        <aggregate-warnings value="5"/>
    </report>

</configuration>
-->

<net version="1.9" junctionCornerDetail="5" limitTurnSpeed="5.50" xmlns:xsi="http://www.w3.org/2001/XMLSchema-instance" xsi:noNamespaceSchemaLocation="http://sumo.dlr.de/xsd/net_file.xsd">

    <location netOffset="-588106.40,-4498775.59" convBoundary="603.66,1119.93,1086.64,2773.33" origBoundary="-73.957967,40.635033,-73.937893,40.660041" projParameter="+proj=utm +zone=18 +ellps=WGS84 +datum=WGS84 +units=m +no_defs"/>

    <type id="highway.bridleway" priority="1" numLanes="1" speed="2.78" allow="pedestrian" oneway="1" width="2.00"/>
    <type id="highway.bus_guideway" priority="1" numLanes="1" speed="27.78" allow="bus" oneway="1"/>
    <type id="highway.cycleway" priority="1" numLanes="1" speed="8.33" allow="bicycle" oneway="1" width="1.00"/>
    <type id="highway.footway" priority="1" numLanes="1" speed="2.78" allow="pedestrian" oneway="1" width="2.00"/>
    <type id="highway.ford" priority="1" numLanes="1" speed="2.78" allow="army" oneway="1"/>
    <type id="highway.living_street" priority="2" numLanes="1" speed="2.78" disallow="tram rail_urban rail rail_electric rail_fast ship" oneway="1"/>
    <type id="highway.motorway" priority="14" numLanes="2" speed="39.44" allow="private emergency authority army vip passenger hov taxi bus coach delivery truck trailer motorcycle evehicle custom1 custom2" oneway="1"/>
    <type id="highway.motorway_link" priority="9" numLanes="1" speed="22.22" allow="private emergency authority army vip passenger hov taxi bus coach delivery truck trailer motorcycle evehicle custom1 custom2" oneway="1"/>
    <type id="highway.path" priority="1" numLanes="1" speed="2.78" allow="pedestrian bicycle" oneway="1" width="2.00"/>
    <type id="highway.pedestrian" priority="1" numLanes="1" speed="2.78" allow="pedestrian" oneway="1" width="2.00"/>
    <type id="highway.primary" priority="12" numLanes="2" speed="27.78" disallow="tram rail_urban rail rail_electric rail_fast ship" oneway="1"/>
    <type id="highway.primary_link" priority="7" numLanes="1" speed="22.22" disallow="tram rail_urban rail rail_electric rail_fast ship" oneway="1"/>
    <type id="highway.raceway" priority="15" numLanes="2" speed="83.33" allow="vip" oneway="1"/>
    <type id="highway.residential" priority="3" numLanes="1" speed="13.89" disallow="tram rail_urban rail rail_electric rail_fast ship" oneway="1"/>
    <type id="highway.secondary" priority="11" numLanes="1" speed="27.78" disallow="tram rail_urban rail rail_electric rail_fast ship" oneway="1"/>
    <type id="highway.secondary_link" priority="6" numLanes="1" speed="22.22" disallow="tram rail_urban rail rail_electric rail_fast ship" oneway="1"/>
    <type id="highway.service" priority="1" numLanes="1" speed="5.56" allow="pedestrian delivery bicycle" oneway="1"/>
    <type id="highway.stairs" priority="1" numLanes="1" speed="1.39" allow="pedestrian" oneway="1" width="2.00"/>
    <type id="highway.step" priority="1" numLanes="1" speed="1.39" allow="pedestrian" oneway="1" width="2.00"/>
    <type id="highway.steps" priority="1" numLanes="1" speed="1.39" allow="pedestrian" oneway="1" width="2.00"/>
    <type id="highway.tertiary" priority="10" numLanes="1" speed="22.22" disallow="tram rail_urban rail rail_electric rail_fast ship" oneway="1"/>
    <type id="highway.tertiary_link" priority="5" numLanes="1" speed="22.22" disallow="tram rail_urban rail rail_electric rail_fast ship" oneway="1"/>
    <type id="highway.track" priority="1" numLanes="1" speed="5.56" allow="pedestrian motorcycle moped bicycle" oneway="1"/>
    <type id="highway.trunk" priority="13" numLanes="2" speed="27.78" disallow="pedestrian bicycle tram rail_urban rail rail_electric rail_fast ship" oneway="1"/>
    <type id="highway.trunk_link" priority="8" numLanes="1" speed="22.22" disallow="pedestrian bicycle tram rail_urban rail rail_electric rail_fast ship" oneway="1"/>
    <type id="highway.unclassified" priority="4" numLanes="1" speed="13.89" disallow="tram rail_urban rail rail_electric rail_fast ship" oneway="1"/>
    <type id="highway.unsurfaced" priority="1" numLanes="1" speed="8.33" disallow="tram rail_urban rail rail_electric rail_fast ship" oneway="1"/>
    <type id="railway.highspeed" priority="21" numLanes="1" speed="69.44" allow="rail_fast" oneway="1"/>
    <type id="railway.light_rail" priority="19" numLanes="1" speed="27.78" allow="rail_urban" oneway="1"/>
    <type id="railway.preserved" priority="16" numLanes="1" speed="27.78" allow="rail" oneway="1"/>
    <type id="railway.rail" priority="20" numLanes="1" speed="44.44" allow="rail" oneway="1"/>
    <type id="railway.subway" priority="18" numLanes="1" speed="27.78" allow="rail_urban" oneway="1"/>
    <type id="railway.tram" priority="17" numLanes="1" speed="13.89" allow="tram" oneway="1"/>

    <edge id=":42464444_0" function="internal">
        <lane id=":42464444_0_0" index="0" disallow="tram rail_urban rail rail_electric rail_fast ship" speed="13.89" length="11.19" shape="887.29,1557.46 876.15,1556.42"/>
    </edge>
    <edge id=":42464444_1" function="internal">
        <lane id=":42464444_1_0" index="0" disallow="tram rail_urban rail rail_electric rail_fast ship" speed="7.32" length="4.04" shape="887.29,1557.46 884.90,1556.69 883.89,1555.54"/>
    </edge>
    <edge id=":42464444_2" function="internal">
        <lane id=":42464444_2_0" index="0" disallow="tram rail_urban rail rail_electric rail_fast ship" speed="3.65" length="2.34" shape="887.29,1557.46 886.17,1556.56 885.84,1555.72"/>
    </edge>
    <edge id=":42464444_6" function="internal">
        <lane id=":42464444_6_0" index="0" disallow="tram rail_urban rail rail_electric rail_fast ship" speed="7.32" length="7.68" shape="883.89,1555.54 883.31,1554.88 882.53,1552.05 882.54,1548.19"/>
    </edge>
    <edge id=":42464444_7" function="internal">
        <lane id=":42464444_7_0" index="0" disallow="tram rail_urban rail rail_electric rail_fast ship" speed="3.65" length="2.34" shape="885.84,1555.72 886.31,1554.96 887.58,1554.28"/>
    </edge>
    <edge id=":42464444_3" function="internal">
        <lane id=":42464444_3_0" index="0" disallow="tram rail_urban rail rail_electric rail_fast ship" speed="6.51" length="9.03" shape="876.44,1553.24 878.91,1553.12 880.75,1552.23 881.96,1550.59 882.54,1548.19"/>
    </edge>
    <edge id=":42464444_4" function="internal">
        <lane id=":42464444_4_0" index="0" disallow="tram rail_urban rail rail_electric rail_fast ship" speed="13.89" length="11.19" shape="876.44,1553.24 887.58,1554.28"/>
    </edge>
    <edge id=":42464444_5" function="internal">
        <lane id=":42464444_5_0" index="0" disallow="tram rail_urban rail rail_electric rail_fast ship" speed="3.65" length="2.34" shape="876.44,1553.24 877.56,1554.15 877.89,1554.98"/>
    </edge>
    <edge id=":42464444_8" function="internal">
        <lane id=":42464444_8_0" index="0" disallow="tram rail_urban rail rail_electric rail_fast ship" speed="3.65" length="2.34" shape="877.89,1554.98 877.42,1555.74 876.15,1556.42"/>
    </edge>
    <edge id=":42464445_0" function="internal">
        <lane id=":42464445_0_0" index="0" disallow="tram rail_urban rail rail_electric rail_fast ship" speed="13.89" length="11.37" shape="909.30,1327.01 897.95,1326.26"/>
    </edge>
    <edge id=":42464445_1" function="internal">
        <lane id=":42464445_1_0" index="0" disallow="tram rail_urban rail rail_electric rail_fast ship" speed="7.28" length="4.06" shape="909.30,1327.01 906.85,1326.29 905.83,1325.18"/>
    </edge>
    <edge id=":42464445_2" function="internal">
        <lane id=":42464445_2_0" index="0" disallow="tram rail_urban rail rail_electric rail_fast ship" speed="3.65" length="2.34" shape="909.30,1327.01 908.15,1326.13 907.81,1325.31"/>
    </edge>
    <edge id=":42464445_9" function="internal">
        <lane id=":42464445_9_0" index="0" disallow="tram rail_urban rail rail_electric rail_fast ship" speed="7.28" length="7.71" shape="905.83,1325.18 905.22,1324.52 904.41,1321.70 904.41,1317.82"/>
    </edge>
    <edge id=":42464445_10" function="internal">
        <lane id=":42464445_10_0" index="0" disallow="tram rail_urban rail rail_electric rail_fast ship" speed="3.65" length="2.34" shape="907.81,1325.31 908.26,1324.54 909.51,1323.82"/>
    </edge>
    <edge id=":42464445_3" function="internal">
        <lane id=":42464445_3_0" index="0" disallow="tram rail_urban rail rail_electric rail_fast ship" speed="6.64" length="9.25" shape="898.16,1323.06 900.70,1322.88 902.59,1321.94 903.82,1320.25 904.41,1317.82"/>
    </edge>
    <edge id=":42464445_4" function="internal">
        <lane id=":42464445_4_0" index="0" disallow="tram rail_urban rail rail_electric rail_fast ship" speed="13.89" length="11.38" shape="898.16,1323.06 909.51,1323.82"/>
    </edge>
    <edge id=":42464445_5" function="internal">
        <lane id=":42464445_5_0" index="0" disallow="tram rail_urban rail rail_electric rail_fast ship" speed="3.65" length="2.34" shape="898.16,1323.06 899.30,1323.94 899.65,1324.76"/>
    </edge>
    <edge id=":42464445_11" function="internal">
        <lane id=":42464445_11_0" index="0" disallow="tram rail_urban rail rail_electric rail_fast ship" speed="3.65" length="2.34" shape="899.65,1324.76 899.20,1325.54 897.95,1326.26"/>
    </edge>
    <edge id=":42464445_6" function="internal">
        <lane id=":42464445_6_0" index="0" disallow="tram rail_urban rail rail_electric rail_fast ship" speed="6.44" length="9.03" shape="903.05,1332.25 902.93,1329.76 902.04,1327.94 900.38,1326.77 897.95,1326.26"/>
    </edge>
    <edge id=":42464445_7" function="internal">
        <lane id=":42464445_7_0" index="0" disallow="tram rail_urban rail rail_electric rail_fast ship" speed="13.89" length="14.49" shape="903.05,1332.25 904.41,1317.82"/>
    </edge>
    <edge id=":42464445_8" function="internal">
        <lane id=":42464445_8_0" index="0" disallow="tram rail_urban rail rail_electric rail_fast ship" speed="7.44" length="11.88" shape="903.05,1332.25 903.77,1328.42 905.09,1325.74 907.00,1324.20 909.51,1323.82"/>
    </edge>
    <edge id=":42464452_0" function="internal">
        <lane id=":42464452_0_0" index="0" disallow="tram rail_urban rail rail_electric rail_fast ship" speed="13.89" length="11.20" shape="926.83,1137.10 915.68,1136.06"/>
    </edge>
    <edge id=":42464452_1" function="internal">
        <lane id=":42464452_1_0" index="0" disallow="tram rail_urban rail rail_electric rail_fast ship" speed="3.65" length="2.34" shape="926.83,1137.10 925.71,1136.20 925.39,1135.36"/>
    </edge>
    <edge id=":42464452_6" function="internal">
        <lane id=":42464452_6_0" index="0" disallow="tram rail_urban rail rail_electric rail_fast ship" speed="3.65" length="2.34" shape="925.39,1135.36 925.86,1134.60 927.13,1133.92"/>
    </edge>
    <edge id=":42464452_2" function="internal">
        <lane id=":42464452_2_0" index="0" disallow="tram rail_urban rail rail_electric rail_fast ship" speed="13.89" length="11.20" shape="915.98,1132.87 927.13,1133.92"/>
    </edge>
    <edge id=":42464452_3" function="internal">
        <lane id=":42464452_3_0" index="0" disallow="tram rail_urban rail rail_electric rail_fast ship" speed="3.65" length="2.34" shape="915.98,1132.87 917.10,1133.78 917.42,1134.62"/>
    </edge>
    <edge id=":42464452_7" function="internal">
        <lane id=":42464452_7_0" index="0" disallow="tram rail_urban rail rail_electric rail_fast ship" speed="3.65" length="2.34" shape="917.42,1134.62 916.95,1135.38 915.68,1136.06"/>
    </edge>
    <edge id=":42464452_4" function="internal">
        <lane id=":42464452_4_0" index="0" disallow="tram rail_urban rail rail_electric rail_fast ship" speed="6.51" length="9.03" shape="920.73,1142.16 920.61,1139.69 919.73,1137.85 918.09,1136.64 915.68,1136.06"/>
    </edge>
    <edge id=":42464452_5" function="internal">
        <lane id=":42464452_5_0" index="0" disallow="tram rail_urban rail rail_electric rail_fast ship" speed="7.33" length="11.73" shape="920.73,1142.16 921.44,1138.36 922.75,1135.72 924.64,1134.24 927.13,1133.92"/>
    </edge>
    <edge id=":42478813_0" function="internal">
        <lane id=":42478813_0_0" index="0" disallow="tram rail_urban rail rail_electric rail_fast ship" speed="11.18" length="0.10" shape="729.36,1453.62 729.36,1453.62"/>
    </edge>
    <edge id=":42481713_0" function="internal">
        <lane id=":42481713_0_0" index="0" disallow="tram rail_urban rail rail_electric rail_fast ship" speed="6.08" length="7.75" shape="724.27,1542.24 722.95,1541.72 722.10,1540.46 721.70,1538.44 721.76,1535.68"/>
    </edge>
    <edge id=":42481713_1" function="internal">
        <lane id=":42481713_1_0" index="0" disallow="tram rail_urban rail rail_electric rail_fast ship" speed="3.65" length="4.67" shape="724.27,1542.24 723.15,1541.33 722.82,1540.50 723.29,1539.74 724.56,1539.05"/>
    </edge>
    <edge id=":42481716_0" function="internal">
        <lane id=":42481716_0_0" index="0" disallow="tram rail_urban rail rail_electric rail_fast ship" speed="6.05" length="7.83" shape="745.35,1316.25 743.97,1315.76 743.08,1314.51 742.66,1312.49 742.71,1309.72"/>
    </edge>
    <edge id=":42481716_1" function="internal">
        <lane id=":42481716_1_0" index="0" disallow="tram rail_urban rail rail_electric rail_fast ship" speed="3.65" length="4.67" shape="745.35,1316.25 744.20,1315.37 743.86,1314.54 744.31,1313.77 745.56,1313.05"/>
    </edge>
    <edge id=":42481716_2" function="internal">
        <lane id=":42481716_2_0" index="0" disallow="tram rail_urban rail rail_electric rail_fast ship" speed="11.18" length="9.40" shape="741.84,1319.08 742.71,1309.72"/>
    </edge>
    <edge id=":42481716_3" function="internal">
        <lane id=":42481716_3_0" index="0" disallow="tram rail_urban rail rail_electric rail_fast ship" speed="6.15" length="7.80" shape="741.84,1319.08 742.29,1316.36 743.06,1314.46 744.15,1313.35 745.56,1313.05"/>
    </edge>
    <edge id=":42481722_0" function="internal">
        <lane id=":42481722_0_0" index="0" disallow="tram rail_urban rail rail_electric rail_fast ship" speed="3.65" length="1.14" shape="763.42,1121.81 762.53,1121.09"/>
    </edge>
    <edge id=":42481722_2" function="internal">
        <lane id=":42481722_2_0" index="0" disallow="tram rail_urban rail rail_electric rail_fast ship" speed="3.65" length="3.53" shape="762.53,1121.09 762.30,1120.90 761.97,1120.07 762.45,1119.31 763.72,1118.63"/>
    </edge>
    <edge id=":42481722_1" function="internal">
        <lane id=":42481722_1_0" index="0" disallow="tram rail_urban rail rail_electric rail_fast ship" speed="6.08" length="7.76" shape="760.04,1124.61 760.49,1121.88 761.25,1119.98 762.33,1118.89 763.72,1118.63"/>
    </edge>
    <edge id=":42483733_0" function="internal">
        <lane id=":42483733_0_0" index="0" disallow="tram rail_urban rail rail_electric rail_fast ship" speed="13.89" length="11.20" shape="808.40,1550.09 797.25,1549.05"/>
    </edge>
    <edge id=":42483733_1" function="internal">
        <lane id=":42483733_1_0" index="0" disallow="tram rail_urban rail rail_electric rail_fast ship" speed="3.65" length="2.34" shape="808.40,1550.09 807.28,1549.19 806.96,1548.35"/>
    </edge>
    <edge id=":42483733_6" function="internal">
        <lane id=":42483733_6_0" index="0" disallow="tram rail_urban rail rail_electric rail_fast ship" speed="3.65" length="2.34" shape="806.96,1548.35 807.43,1547.59 808.70,1546.91"/>
    </edge>
    <edge id=":42483733_2" function="internal">
        <lane id=":42483733_2_0" index="0" disallow="tram rail_urban rail rail_electric rail_fast ship" speed="6.50" length="9.03" shape="803.65,1540.81 803.77,1543.28 804.65,1545.12 806.29,1546.33 808.70,1546.91"/>
    </edge>
    <edge id=":42483733_3" function="internal">
        <lane id=":42483733_3_0" index="0" disallow="tram rail_urban rail rail_electric rail_fast ship" speed="7.33" length="11.73" shape="803.65,1540.81 802.94,1544.61 801.63,1547.25 799.74,1548.73 797.25,1549.05"/>
    </edge>
    <edge id=":42483733_4" function="internal">
        <lane id=":42483733_4_0" index="0" disallow="tram rail_urban rail rail_electric rail_fast ship" speed="13.89" length="11.20" shape="797.55,1545.87 808.70,1546.91"/>
    </edge>
    <edge id=":42483733_5" function="internal">
        <lane id=":42483733_5_0" index="0" disallow="tram rail_urban rail rail_electric rail_fast ship" speed="3.65" length="2.34" shape="797.55,1545.87 798.67,1546.78 798.99,1547.61"/>
    </edge>
    <edge id=":42483733_7" function="internal">
        <lane id=":42483733_7_0" index="0" disallow="tram rail_urban rail rail_electric rail_fast ship" speed="3.65" length="2.34" shape="798.99,1547.61 798.52,1548.37 797.25,1549.05"/>
    </edge>
    <edge id=":42483736_0" function="internal">
        <lane id=":42483736_0_0" index="0" disallow="tram rail_urban rail rail_electric rail_fast ship" speed="6.65" length="9.25" shape="830.22,1321.84 827.68,1322.02 825.80,1322.96 824.56,1324.65 823.96,1327.09"/>
    </edge>
    <edge id=":42483736_1" function="internal">
        <lane id=":42483736_1_0" index="0" disallow="tram rail_urban rail rail_electric rail_fast ship" speed="13.89" length="11.38" shape="830.22,1321.84 818.86,1321.09"/>
    </edge>
    <edge id=":42483736_2" function="internal">
        <lane id=":42483736_2_0" index="0" disallow="tram rail_urban rail rail_electric rail_fast ship" speed="3.65" length="2.34" shape="830.22,1321.84 829.08,1320.96 828.73,1320.14"/>
    </edge>
    <edge id=":42483736_9" function="internal">
        <lane id=":42483736_9_0" index="0" disallow="tram rail_urban rail rail_electric rail_fast ship" speed="3.65" length="2.34" shape="828.73,1320.14 829.18,1319.36 830.43,1318.64"/>
    </edge>
    <edge id=":42483736_3" function="internal">
        <lane id=":42483736_3_0" index="0" disallow="tram rail_urban rail rail_electric rail_fast ship" speed="6.45" length="9.03" shape="825.32,1312.66 825.44,1315.14 826.34,1316.96 828.00,1318.13 830.43,1318.64"/>
    </edge>
    <edge id=":42483736_4" function="internal">
        <lane id=":42483736_4_0" index="0" disallow="tram rail_urban rail rail_electric rail_fast ship" speed="13.89" length="14.49" shape="825.32,1312.66 823.96,1327.09"/>
    </edge>
    <edge id=":42483736_5" function="internal">
        <lane id=":42483736_5_0" index="0" disallow="tram rail_urban rail rail_electric rail_fast ship" speed="7.44" length="11.88" shape="825.32,1312.66 824.61,1316.49 823.30,1319.17 821.38,1320.70 818.86,1321.09"/>
    </edge>
    <edge id=":42483736_6" function="internal">
        <lane id=":42483736_6_0" index="0" disallow="tram rail_urban rail rail_electric rail_fast ship" speed="13.89" length="11.38" shape="819.07,1317.90 830.43,1318.64"/>
    </edge>
    <edge id=":42483736_7" function="internal">
        <lane id=":42483736_7_0" index="0" disallow="tram rail_urban rail rail_electric rail_fast ship" speed="7.27" length="4.07" shape="819.07,1317.90 821.53,1318.61 822.56,1319.73"/>
    </edge>
    <edge id=":42483736_8" function="internal">
        <lane id=":42483736_8_0" index="0" disallow="tram rail_urban rail rail_electric rail_fast ship" speed="3.65" length="2.34" shape="819.07,1317.90 820.22,1318.78 820.57,1319.60"/>
    </edge>
    <edge id=":42483736_10" function="internal">
        <lane id=":42483736_10_0" index="0" disallow="tram rail_urban rail rail_electric rail_fast ship" speed="7.27" length="7.70" shape="822.56,1319.73 823.16,1320.38 823.97,1323.21 823.96,1327.09"/>
    </edge>
    <edge id=":42483736_11" function="internal">
        <lane id=":42483736_11_0" index="0" disallow="tram rail_urban rail rail_electric rail_fast ship" speed="3.65" length="2.34" shape="820.57,1319.60 820.11,1320.37 818.86,1321.09"/>
    </edge>
    <edge id=":42483740_0" function="internal">
        <lane id=":42483740_0_0" index="0" disallow="tram rail_urban rail rail_electric rail_fast ship" speed="6.51" length="9.02" shape="847.93,1129.71 845.46,1129.84 843.63,1130.72 842.42,1132.37 841.85,1134.77"/>
    </edge>
    <edge id=":42483740_1" function="internal">
        <lane id=":42483740_1_0" index="0" disallow="tram rail_urban rail rail_electric rail_fast ship" speed="13.89" length="11.19" shape="847.93,1129.71 836.79,1128.68"/>
    </edge>
    <edge id=":42483740_2" function="internal">
        <lane id=":42483740_2_0" index="0" disallow="tram rail_urban rail rail_electric rail_fast ship" speed="3.65" length="2.34" shape="847.93,1129.71 846.81,1128.81 846.49,1127.97"/>
    </edge>
    <edge id=":42483740_6" function="internal">
        <lane id=":42483740_6_0" index="0" disallow="tram rail_urban rail rail_electric rail_fast ship" speed="3.65" length="2.34" shape="846.49,1127.97 846.96,1127.21 848.23,1126.53"/>
    </edge>
    <edge id=":42483740_3" function="internal">
        <lane id=":42483740_3_0" index="0" disallow="tram rail_urban rail rail_electric rail_fast ship" speed="13.89" length="11.18" shape="837.09,1125.49 848.23,1126.53"/>
    </edge>
    <edge id=":42483740_4" function="internal">
        <lane id=":42483740_4_0" index="0" disallow="tram rail_urban rail rail_electric rail_fast ship" speed="7.33" length="4.03" shape="837.09,1125.49 839.48,1126.27 840.48,1127.41"/>
    </edge>
    <edge id=":42483740_5" function="internal">
        <lane id=":42483740_5_0" index="0" disallow="tram rail_urban rail rail_electric rail_fast ship" speed="3.65" length="2.34" shape="837.09,1125.49 838.21,1126.40 838.54,1127.24"/>
    </edge>
    <edge id=":42483740_7" function="internal">
        <lane id=":42483740_7_0" index="0" disallow="tram rail_urban rail rail_electric rail_fast ship" speed="7.33" length="7.69" shape="840.48,1127.41 841.06,1128.08 841.85,1130.91 841.85,1134.77"/>
    </edge>
    <edge id=":42483740_8" function="internal">
        <lane id=":42483740_8_0" index="0" disallow="tram rail_urban rail rail_electric rail_fast ship" speed="3.65" length="2.34" shape="838.54,1127.24 838.06,1127.99 836.79,1128.68"/>
    </edge>
    <edge id=":42496574_0" function="internal">
        <lane id=":42496574_0_0" index="0" disallow="tram rail_urban rail rail_electric rail_fast ship" speed="13.89" length="14.40" shape="972.32,1565.41 957.99,1564.07"/>
    </edge>
    <edge id=":42496574_1" function="internal">
        <lane id=":42496574_1_0" index="0" disallow="tram rail_urban rail rail_electric rail_fast ship" speed="8.01" length="5.93" shape="972.32,1565.41 968.55,1564.51 966.90,1563.30"/>
    </edge>
    <edge id=":42496574_2" function="internal">
        <lane id=":42496574_2_0" index="0" disallow="tram rail_urban rail rail_electric rail_fast ship" speed="3.65" length="2.34" shape="972.32,1565.41 971.20,1564.50 970.88,1563.67"/>
    </edge>
    <edge id=":42496574_9" function="internal">
        <lane id=":42496574_9_0" index="0" disallow="tram rail_urban rail rail_electric rail_fast ship" speed="8.01" length="8.27" shape="966.90,1563.30 965.96,1562.61 964.57,1559.71 964.37,1555.83"/>
    </edge>
    <edge id=":42496574_10" function="internal">
        <lane id=":42496574_10_0" index="0" disallow="tram rail_urban rail rail_electric rail_fast ship" speed="3.65" length="2.34" shape="970.88,1563.67 971.35,1562.91 972.62,1562.23"/>
    </edge>
    <edge id=":42496574_3" function="internal">
        <lane id=":42496574_3_0" index="0" disallow="tram rail_urban rail rail_electric rail_fast ship" speed="6.51" length="9.04" shape="967.56,1556.12 967.69,1558.60 968.57,1560.44 970.22,1561.65 972.62,1562.23"/>
    </edge>
    <edge id=":42496574_4" function="internal">
        <lane id=":42496574_4_0" index="0" disallow="tram rail_urban rail rail_electric rail_fast ship" speed="8.00" length="14.20" shape="967.56,1556.12 966.66,1559.91 964.77,1562.49 961.87,1563.88 957.99,1564.07"/>
    </edge>
    <edge id=":42496574_5" function="internal">
        <lane id=":42496574_5_0" index="0" disallow="tram rail_urban rail rail_electric rail_fast ship" speed="3.65" length="2.56" shape="967.56,1556.12 966.66,1557.24 965.82,1557.57 965.63,1557.45"/>
    </edge>
    <edge id=":42496574_11" function="internal">
        <lane id=":42496574_11_0" index="0" disallow="tram rail_urban rail rail_electric rail_fast ship" speed="3.65" length="2.12" shape="965.63,1557.45 965.06,1557.10 964.37,1555.83"/>
    </edge>
    <edge id=":42496574_6" function="internal">
        <lane id=":42496574_6_0" index="0" disallow="tram rail_urban rail rail_electric rail_fast ship" speed="6.50" length="9.03" shape="958.28,1560.89 960.76,1560.77 962.60,1559.88 963.80,1558.24 964.37,1555.83"/>
    </edge>
    <edge id=":42496574_7" function="internal">
        <lane id=":42496574_7_0" index="0" disallow="tram rail_urban rail rail_electric rail_fast ship" speed="13.89" length="14.40" shape="958.28,1560.89 972.62,1562.23"/>
    </edge>
    <edge id=":42496574_8" function="internal">
        <lane id=":42496574_8_0" index="0" disallow="tram rail_urban rail rail_electric rail_fast ship" speed="3.65" length="2.34" shape="958.28,1560.89 959.40,1561.79 959.73,1562.63"/>
    </edge>
    <edge id=":42496574_12" function="internal">
        <lane id=":42496574_12_0" index="0" disallow="tram rail_urban rail rail_electric rail_fast ship" speed="3.65" length="2.34" shape="959.73,1562.63 959.26,1563.39 957.99,1564.07"/>
    </edge>
    <edge id=":42496577_0" function="internal">
        <lane id=":42496577_0_0" index="0" disallow="tram rail_urban rail rail_electric rail_fast ship" speed="6.64" length="9.29" shape="993.80,1332.78 991.26,1332.96 989.38,1333.91 988.14,1335.62 987.56,1338.08"/>
    </edge>
    <edge id=":42496577_1" function="internal">
        <lane id=":42496577_1_0" index="0" disallow="tram rail_urban rail rail_electric rail_fast ship" speed="13.89" length="14.57" shape="993.80,1332.78 979.26,1331.79"/>
    </edge>
    <edge id=":42496577_2" function="internal">
        <lane id=":42496577_2_0" index="0" disallow="tram rail_urban rail rail_electric rail_fast ship" speed="7.95" length="5.94" shape="993.80,1332.78 989.95,1331.96 988.31,1330.80"/>
    </edge>
    <edge id=":42496577_3" function="internal">
        <lane id=":42496577_3_0" index="0" disallow="tram rail_urban rail rail_electric rail_fast ship" speed="3.65" length="2.34" shape="993.80,1332.78 992.65,1331.90 992.31,1331.07"/>
    </edge>
    <edge id=":42496577_16" function="internal">
        <lane id=":42496577_16_0" index="0" disallow="tram rail_urban rail rail_electric rail_fast ship" speed="7.95" length="8.36" shape="988.31,1330.80 987.32,1330.10 985.92,1327.21 985.74,1323.28"/>
    </edge>
    <edge id=":42496577_17" function="internal">
        <lane id=":42496577_17_0" index="0" disallow="tram rail_urban rail rail_electric rail_fast ship" speed="3.65" length="2.34" shape="992.31,1331.07 992.76,1330.30 994.01,1329.59"/>
    </edge>
    <edge id=":42496577_4" function="internal">
        <lane id=":42496577_4_0" index="0" disallow="tram rail_urban rail rail_electric rail_fast ship" speed="6.45" length="9.03" shape="988.92,1323.58 989.04,1326.07 989.92,1327.89 991.58,1329.07 994.01,1329.59"/>
    </edge>
    <edge id=":42496577_5" function="internal">
        <lane id=":42496577_5_0" index="0" disallow="tram rail_urban rail rail_electric rail_fast ship" speed="13.89" length="14.56" shape="988.92,1323.58 987.56,1338.08"/>
    </edge>
    <edge id=":42496577_6" function="internal">
        <lane id=":42496577_6_0" index="0" disallow="tram rail_urban rail rail_electric rail_fast ship" speed="8.13" length="5.97" shape="988.92,1323.58 988.00,1327.40 986.80,1329.05"/>
    </edge>
    <edge id=":42496577_7" function="internal">
        <lane id=":42496577_7_0" index="0" disallow="tram rail_urban rail rail_electric rail_fast ship" speed="3.65" length="2.34" shape="988.92,1323.58 988.01,1324.70 987.17,1325.02"/>
    </edge>
    <edge id=":42496577_18" function="internal">
        <lane id=":42496577_18_0" index="0" disallow="tram rail_urban rail rail_electric rail_fast ship" speed="8.13" length="8.40" shape="986.80,1329.05 986.08,1330.04 983.17,1331.50 979.26,1331.79"/>
    </edge>
    <edge id=":42496577_19" function="internal">
        <lane id=":42496577_19_0" index="0" disallow="tram rail_urban rail rail_electric rail_fast ship" speed="3.65" length="2.34" shape="987.17,1325.02 986.42,1324.55 985.74,1323.28"/>
    </edge>
    <edge id=":42496577_8" function="internal">