<?xml version="1.0" encoding="UTF-8"?>

<!-- generated on 2021-07-28 18:14:11 by Eclipse SUMO polyconvert Version 1.9.2
<configuration xmlns:xsi="http://www.w3.org/2001/XMLSchema-instance" xsi:noNamespaceSchemaLocation="http://sumo.dlr.de/xsd/polyconvertConfiguration.xsd">

    <input>
        <net-file value="osm.net.xml"/>
        <osm-files value="osm_bbox.osm.xml"/>
        <osm.keep-full-type value="true"/>
        <type-file value="C:\Program%20Files%20(x86)\Eclipse\Sumo\data\typemap\osmPolyconvert.typ.xml"/>
    </input>

    <output>
        <output-file value="osm.poly.xml"/>
    </output>

    <processing>
        <poi-layer-offset value="5"/>
    </processing>

    <report>
        <verbose value="true"/>
    </report>

</configuration>
-->

<additional xmlns:xsi="http://www.w3.org/2001/XMLSchema-instance" xsi:noNamespaceSchemaLocation="http://sumo.dlr.de/xsd/additional_file.xsd">
    <location netOffset="-588106.40,-4498775.59" convBoundary="0.00,0.00,1690.54,2773.33" origBoundary="-73.957967,40.635033,-73.937893,40.660041" projParameter="+proj=utm +zone=18 +ellps=WGS84 +datum=WGS84 +units=m +no_defs"/>

    <poly id="250138639" type="building.yes" color="255,230,230" fill="1" layer="-1.00" shape="979.432756,1100.624638 979.334904,1101.733681 975.398306,1101.386765 975.085183,1104.935701 979.021780,1105.282616 978.991893,1105.659731 991.764658,1106.789741 992.205663,1101.743549 979.432756,1100.624638"/>
    <poly id="250138640" type="building.yes" color="255,230,230" fill="1" layer="-1.00" shape="979.941450,1094.868719 979.432756,1100.624638 992.205663,1101.743549 992.714234,1095.998731 979.941450,1094.868719"/>
    <poly id="250138660" type="building.yes" color="255,230,230" fill="1" layer="-1.00" shape="774.542279,1097.517948 774.026085,1103.207174 794.426744,1105.038635 794.709637,1101.889010 791.296865,1101.581761 791.521726,1099.042059 774.542279,1097.517948"/>
    <poly id="250138661" type="building.yes" color="255,230,230" fill="1" layer="-1.00" shape="733.166502,1093.093387 732.613468,1099.037524 746.863832,1100.362399 747.196376,1100.133227 747.711124,1099.517658 747.990713,1098.766054 748.020854,1098.366737 747.894986,1097.576982 747.647161,1097.085526 747.221775,1096.591950 747.416878,1094.418263 733.166502,1093.093387"/>
    <poly id="250138662" type="building.yes" color="255,230,230" fill="1" layer="-1.00" shape="775.078568,1091.562511 774.542279,1097.517948 791.521726,1099.042059 792.058029,1093.086623 775.078568,1091.562511"/>
    <poly id="250138692" type="building.yes" color="255,230,230" fill="1" layer="-1.00" shape="856.040852,1104.354391 855.847046,1106.417071 855.306126,1107.098932 854.974997,1107.916530 854.896864,1108.792664 855.064333,1109.638430 855.470013,1110.364922 866.966161,1111.468344 867.537010,1105.457814 856.040852,1104.354391"/>
    <poly id="250138693" type="building.yes" color="255,230,230" fill="1" layer="-1.00" shape="935.068351,1111.328675 934.863143,1113.635464 934.099853,1114.525598 933.845744,1115.266399 933.836307,1116.054539 934.064151,1116.801110 934.513029,1117.450409 951.086553,1118.970026 951.650343,1112.848395 935.068351,1111.328675"/>
    <poly id="250138694" type="building.yes" color="255,230,230" fill="1" layer="-1.00" shape="821.452092,1100.943112 820.833694,1107.397161 834.703409,1108.728755 835.277841,1108.780034 835.417814,1107.682597 835.382176,1107.127063 835.115895,1106.058073 834.594892,1105.074854 833.852059,1104.255513 834.054713,1102.159633 821.452092,1100.943112"/>
    <poly id="250138695" type="building.yes" color="255,230,230" fill="1" layer="-1.00" shape="895.359969,1107.500483 894.787636,1113.633117 910.938408,1115.147585 911.262633,1114.907219 911.777394,1114.291661 912.048545,1113.539961 912.058112,1112.740722 911.961432,1112.339887 911.796578,1111.982645 911.296699,1111.354942 911.510886,1109.003851 895.359969,1107.500483"/>
    <poly id="250138696" type="building.yes" color="255,230,230" fill="1" layer="-1.00" shape="856.900104,1098.269596 856.716213,1100.210270 855.461990,1101.138948 855.258533,1103.301431 856.040852,1104.354391 867.537010,1105.457814 867.595312,1104.825690 871.193699,1105.168501 871.629840,1100.521923 868.039906,1100.179212 868.117643,1099.336380 856.900104,1098.269596"/>
    <poly id="250138697" type="building.yes" color="255,230,230" fill="1" layer="-1.00" shape="935.622477,1105.306847 935.428383,1107.391726 934.379471,1108.123010 934.213800,1109.952880 935.068351,1111.328675 951.650343,1112.848395 952.204483,1106.826567 935.622477,1105.306847"/>
    <poly id="250138698" type="building.yes" color="255,230,230" fill="1" layer="-1.00" shape="822.021312,1095.065785 821.452092,1100.943112 834.054713,1102.159633 834.352285,1101.319429 834.396727,1100.431790 834.317352,1099.997857 833.980507,1099.172270 833.422097,1098.488361 833.070292,1098.206600 833.264092,1096.143920 822.021312,1095.065785"/>
    <poly id="250138699" type="building.yes" color="255,230,230" fill="1" layer="-1.00" shape="895.932037,1101.390050 895.359969,1107.500483 911.510886,1109.003851 912.650195,1107.785152 912.795496,1106.243693 911.912119,1105.156211 912.125111,1102.905026 895.932037,1101.390050"/>
    <poly id="250138700" type="building.yes" color="255,230,230" fill="1" layer="-1.00" shape="857.470812,1092.270166 857.286655,1094.233042 856.662510,1094.802886 856.421510,1095.155272 856.141378,1095.951274 856.102511,1096.372691 856.227836,1097.206850 856.392295,1097.597393 856.900104,1098.269596 868.117643,1099.336380 868.688360,1093.336951 857.470812,1092.270166"/>
    <poly id="250138701" type="building.yes" color="255,230,230" fill="1" layer="-1.00" shape="936.196306,1099.052109 935.992161,1101.270093 935.425868,1101.951646 935.086141,1102.780239 935.004859,1103.212249 935.061869,1104.101103 935.183515,1104.535543 935.622477,1105.306847 952.204483,1106.826567 952.778326,1100.571831 936.196306,1099.052109"/>
    <poly id="250138703" type="building.yes" color="255,230,230" fill="1" layer="-1.00" shape="896.494587,1095.368320 895.932037,1101.390050 912.125111,1102.905026 912.457660,1102.675862 912.980611,1102.082606 913.260218,1101.331008 913.261330,1100.531667 913.164516,1100.141933 912.758310,1099.459840 912.474151,1099.178885 912.687674,1096.883297 896.494587,1095.368320"/>
    <poly id="250138705" type="building.yes" color="255,230,230" fill="1" layer="-1.00" shape="936.885054,1093.087403 936.699946,1095.127981 935.564353,1096.035862 935.388897,1097.976636 936.196306,1099.052109 952.778326,1100.571831 953.323479,1094.594304 936.885054,1093.087403"/>
    <poly id="250138774" type="building.yes" color="255,230,230" fill="1" layer="-1.00" shape="719.224615,1097.800682 718.729485,1103.145996 718.613966,1104.321442 732.002674,1105.569384 732.613468,1099.037524 719.224615,1097.800682"/>
    <poly id="250138780" type="building.yes" color="255,230,230" fill="1" layer="-1.00" shape="798.228553,1111.001524 803.803761,1111.512264 805.471794,1092.947230 799.896440,1092.447589 798.726528,1105.423102 798.228553,1111.001524"/>
    <poly id="250138850" type="building.yes" color="255,230,230" fill="1" layer="-1.00" shape="994.846107,1110.046284 983.552099,1109.011698 982.783592,1117.395713 979.345599,1117.076973 980.045740,1109.458187 965.203815,1108.103574 964.103838,1120.158429 962.625619,1120.018600 962.051503,1126.295538 993.095120,1129.143199 994.846107,1110.046284"/>
    <poly id="250138853" type="building.yes" color="255,230,230" fill="1" layer="-1.00" shape="934.513029,1117.450409 934.280329,1119.934503 933.325625,1120.566996 933.139720,1122.674177 933.963107,1123.827557 933.913919,1124.404279 950.453738,1125.912390 950.512447,1125.246964 955.716001,1125.720062 956.290112,1119.443124 951.086553,1118.970026 934.513029,1117.450409"/>
    <poly id="250138887" type="building.yes" color="255,230,230" fill="1" layer="-1.00" shape="955.716001,1125.720062 961.198314,1126.218706 961.772430,1119.941769 956.290112,1119.443124 955.716001,1125.720062"/>
    <poly id="250138903" type="building.garage" color="255,230,230" fill="1" layer="-1.00" shape="877.194805,1112.490004 876.630279,1118.678244 882.737630,1119.239820 883.293706,1113.051479 877.194805,1112.490004"/>
    <poly id="250138914" type="building.garage" color="255,230,230" fill="1" layer="-1.00" shape="882.737630,1119.239820 889.140785,1119.816042 889.705321,1113.627804 883.293706,1113.051479 882.737630,1119.239820"/>
    <poly id="250138923" type="building.yes" color="255,230,230" fill="1" layer="-1.00" shape="774.026085,1103.207174 773.528128,1108.785597 798.228553,1111.001524 798.726528,1105.423102 794.426744,1105.038635 774.026085,1103.207174"/>
    <poly id="250138929" type="building.yes" color="255,230,230" fill="1" layer="-1.00" shape="807.614372,1106.128879 807.063403,1111.895403 834.143963,1114.495176 834.703409,1108.728755 820.833694,1107.397161 807.614372,1106.128879"/>
    <poly id="250138947" type="building.yes" color="255,230,230" fill="1" layer="-1.00" shape="894.787636,1113.633117 894.147482,1120.486579 910.188452,1121.988630 911.399654,1120.415522 911.574040,1118.563552 910.695931,1117.742584 910.938408,1115.147585 894.787636,1113.633117"/>
    <poly id="250138950" type="building.yes" color="255,230,230" fill="1" layer="-1.00" shape="732.613468,1099.037524 732.002674,1105.569384 746.092507,1106.881238 746.141814,1106.293414 748.844867,1106.547754 749.378218,1100.836527 746.844136,1100.595308 746.863832,1100.362399 732.613468,1099.037524"/>
    <poly id="250138959" type="building.yes" color="255,230,230" fill="1" layer="-1.00" shape="855.470013,1110.364922 855.267618,1112.438601 854.346077,1113.127011 854.134033,1115.300494 854.874339,1116.330747 854.807184,1116.996072 871.624995,1118.596149 872.254017,1111.964596 866.966161,1111.468344 855.470013,1110.364922"/>
    <poly id="250139122" type="building.yes" color="255,230,230" fill="1" layer="-1.00" shape="837.593740,1296.944604 837.331063,1299.816917 837.088876,1300.269208 836.798041,1301.253820 836.749657,1301.763940 836.855814,1302.786607 837.010619,1303.276953 853.609106,1304.796663 854.192241,1298.464316 837.593740,1296.944604"/>
    <poly id="250139124" type="building.yes" color="255,230,230" fill="1" layer="-1.00" shape="814.356332,1296.189302 802.378789,1295.057993 801.827168,1300.880021 813.188010,1301.959546 813.372417,1299.974468 814.824215,1299.492233 815.085556,1296.730925 814.375366,1296.011895 814.356332,1296.189302"/>
    <poly id="250139125" type="building.yes" color="255,230,230" fill="1" layer="-1.00" shape="879.382195,1299.998054 878.819269,1306.053088 896.253338,1307.705017 896.524493,1304.832807 895.164549,1304.705508 895.464789,1301.522786 879.382195,1299.998054"/>
    <poly id="250139126" type="building.yes" color="255,230,230" fill="1" layer="-1.00" shape="774.054949,1299.604336 772.720368,1299.477363 755.952092,1298.011315 755.402993,1304.332973 773.438327,1305.914083 773.487236,1305.359560 774.054949,1299.604336"/>
    <poly id="250139128" type="building.yes" color="255,230,230" fill="1" layer="-1.00" shape="838.357166,1291.091805 838.123306,1293.675807 837.042070,1294.284594 836.885677,1296.047964 837.593740,1296.944604 854.192241,1298.464316 854.727657,1292.586585 838.357166,1291.091805"/>
    <poly id="250139129" type="building.yes" color="255,230,230" fill="1" layer="-1.00" shape="756.480700,1291.989171 755.952092,1298.011315 772.720368,1299.477363 773.240534,1293.455118 756.480700,1291.989171"/>
    <poly id="250139130" type="building.yes" color="255,230,230" fill="1" layer="-1.00" shape="716.509989,1289.668663 715.972163,1295.757312 731.295819,1297.106091 731.833657,1291.017443 716.509989,1289.668663"/>
    <poly id="250139131" type="building.yes" color="255,230,230" fill="1" layer="-1.00" shape="717.028917,1283.746321 716.509989,1289.668663 731.833657,1291.017443 732.352464,1285.106202 717.028917,1283.746321"/>
    <poly id="250139132" type="building.yes" color="255,230,230" fill="1" layer="-1.00" shape="756.989877,1286.177735 756.480700,1291.989171 773.240534,1293.455118 773.749725,1287.643683 756.989877,1286.177735"/>
    <poly id="250139133" type="building.yes" color="255,230,230" fill="1" layer="-1.00" shape="757.517955,1280.199993 756.989877,1286.177735 773.749725,1287.643683 774.277684,1281.677043 757.517955,1280.199993"/>
    <poly id="250139134" type="building.yes" color="255,230,230" fill="1" layer="-1.00" shape="717.556167,1277.835180 717.028917,1283.746321 732.352464,1285.106202 732.871272,1279.194961 717.556167,1277.835180"/>
    <poly id="250139135" type="building.yes" color="255,230,230" fill="1" layer="-1.00" shape="757.998054,1274.699070 757.517955,1280.199993 774.277684,1281.677043 781.981865,1282.346443 782.461982,1276.845521 774.757928,1276.165020 757.998054,1274.699070"/>
    <poly id="250139136" type="building.yes" color="255,230,230" fill="1" layer="-1.00" shape="879.973277,1293.710212 879.382195,1299.998054 895.464789,1301.522786 896.064339,1295.235046 879.973277,1293.710212"/>
    <poly id="250139137" type="building.yes" color="255,230,230" fill="1" layer="-1.00" shape="718.085142,1271.779732 717.556167,1277.835180 732.871272,1279.194961 733.408714,1273.139615 718.085142,1271.779732"/>
    <poly id="250139138" type="building.yes" color="255,230,230" fill="1" layer="-1.00" shape="758.536977,1268.521619 757.998054,1274.699070 774.757928,1276.165020 775.296864,1269.987570 758.536977,1268.521619"/>
    <poly id="250139139" type="building.yes" color="255,230,230" fill="1" layer="-1.00" shape="718.661698,1265.280767 718.085142,1271.779732 733.408714,1273.139615 733.985283,1266.640651 718.661698,1265.280767"/>
    <poly id="250139140" type="building.yes" color="255,230,230" fill="1" layer="-1.00" shape="759.045892,1262.732385 758.536977,1268.521619 775.296864,1269.987570 775.805792,1264.198337 759.045892,1262.732385"/>
    <poly id="250139141" type="building.yes" color="255,230,230" fill="1" layer="-1.00" shape="719.150356,1259.768842 718.661698,1265.280767 733.985283,1266.640651 734.474085,1261.117626 719.150356,1259.768842"/>
    <poly id="250139142" type="building.yes" color="255,230,230" fill="1" layer="-1.00" shape="759.535243,1257.164960 759.045892,1262.732385 775.805792,1264.198337 776.210737,1258.618801 769.224556,1258.013500 759.535243,1257.164960"/>
    <poly id="250139143" type="building.yes" color="255,230,230" fill="1" layer="-1.00" shape="719.727443,1253.225475 719.150356,1259.768842 734.474085,1261.117626 735.051053,1254.585361 719.727443,1253.225475"/>
    <poly id="250139144" type="building.yes" color="255,230,230" fill="1" layer="-1.00" shape="761.593480,1250.517172 761.397712,1252.746362 759.838477,1253.726921 759.535243,1257.164960 769.224556,1258.013500 769.400630,1256.017219 770.163126,1254.483135 775.561199,1254.947332 776.435590,1256.079099 776.210737,1258.618801 784.278116,1259.325851 784.874825,1252.560679 761.593480,1250.517172"/>
    <poly id="250139145" type="building.yes" color="255,230,230" fill="1" layer="-1.00" shape="720.275187,1247.014822 719.727443,1253.225475 735.051053,1254.585361 735.598943,1248.363607 720.275187,1247.014822"/>
    <poly id="250139147" type="building.yes" color="255,230,230" fill="1" layer="-1.00" shape="720.793722,1241.125781 720.275187,1247.014822 735.598943,1248.363607 736.117357,1242.485669 720.793722,1241.125781"/>
    <poly id="250139148" type="building.yes" color="255,230,230" fill="1" layer="-1.00" shape="777.531765,1245.023369 777.326077,1247.374564 776.316293,1248.372789 771.011222,1247.909703 770.137094,1246.755736 770.351765,1244.360239 762.199818,1243.652195 761.593480,1250.517172 784.874825,1252.560679 785.472463,1245.717803 777.531765,1245.023369"/>
    <poly id="250139149" type="building.yes" color="255,230,230" fill="1" layer="-1.00" shape="721.331421,1235.048234 720.793722,1241.125781 736.117357,1242.485669 736.655069,1236.408122 721.331421,1235.048234"/>
    <poly id="250139150" type="building.yes" color="255,230,230" fill="1" layer="-1.00" shape="762.827312,1236.432202 762.199818,1243.652195 770.351765,1244.360239 770.547802,1242.108848 771.816946,1240.636331 777.003783,1241.086901 777.656218,1242.393650 777.421980,1245.010955 777.531765,1245.023369 785.472463,1245.717803 786.108833,1238.464612 762.827312,1236.432202"/>
    <poly id="250139151" type="building.yes" color="255,230,230" fill="1" layer="-1.00" shape="721.859605,1229.059390 721.331421,1235.048234 736.655069,1236.408122 737.183265,1230.419279 721.859605,1229.059390"/>
    <poly id="250139152" type="building.yes" color="255,230,230" fill="1" layer="-1.00" shape="722.416471,1222.793335 721.859605,1229.059390 737.183265,1230.419279 737.740276,1224.142124 722.416471,1222.793335"/>
    <poly id="250139153" type="building.yes" color="255,230,230" fill="1" layer="-1.00" shape="778.739864,1230.971400 778.534971,1233.255991 777.566134,1234.365727 772.227232,1233.902237 771.494851,1232.916495 771.720897,1230.276888 763.433784,1229.556125 762.827312,1236.432202 786.108833,1238.464612 786.705943,1231.666138 778.739864,1230.971400"/>
    <poly id="250139154" type="building.yes" color="255,230,230" fill="1" layer="-1.00" shape="722.915047,1217.159405 722.416471,1222.793335 737.740276,1224.142124 738.238864,1218.508196 722.915047,1217.159405"/>
    <poly id="250139155" type="building.yes" color="255,230,230" fill="1" layer="-1.00" shape="764.012503,1222.879554 763.433784,1229.556125 771.720897,1230.276888 771.897105,1228.269507 772.677045,1226.691223 778.303163,1227.180351 778.955334,1228.509301 778.739864,1230.971400 786.705943,1231.666138 787.293934,1224.923067 764.012503,1222.879554"/>
    <poly id="250139156" type="building.yes" color="255,230,230" fill="1" layer="-1.00" shape="814.404581,1295.690282 815.130925,1295.765581 815.314006,1293.891508 816.513438,1294.005771 816.851845,1290.457132 802.948515,1289.136262 802.378789,1295.057993 814.356332,1296.189302 814.375366,1296.011895 814.404581,1295.690282"/>
    <poly id="250139158" type="building.yes" color="255,230,230" fill="1" layer="-1.00" shape="738.238864,1218.508196 738.758209,1212.552553 723.442835,1211.203863 722.915047,1217.159405 738.238864,1218.508196"/>
    <poly id="250139159" type="building.yes" color="255,230,230" fill="1" layer="-1.00" shape="780.166607,1217.021964 779.952065,1219.406359 778.745551,1220.590969 773.516425,1220.139892 773.614510,1219.008646 772.879570,1218.944351 773.114470,1216.271544 764.658369,1215.537658 764.012503,1222.879554 787.293934,1224.923067 787.921454,1217.703076 780.166607,1217.021964"/>
    <poly id="250139160" type="building.yes" color="255,230,230" fill="1" layer="-1.00" shape="765.265242,1208.628279 764.658369,1215.537658 773.114470,1216.271544 773.309446,1214.108957 774.194397,1212.942708 779.448894,1213.394088 780.342552,1215.036784 780.166607,1217.021964 787.921454,1217.703076 788.538263,1210.671694 765.265242,1208.628279"/>
    <poly id="250139161" type="building.yes" color="255,230,230" fill="1" layer="-1.00" shape="781.246160,1203.112787 781.050253,1205.353077 780.112579,1206.685227 774.739969,1206.210231 774.300104,1204.806104 774.496673,1202.510311 765.060812,1201.675897 764.727168,1205.535454 765.451761,1206.465591 765.265242,1208.628279 788.538263,1210.671694 789.144760,1203.795618 781.246160,1203.112787"/>
    <poly id="250139162" type="building.yes" color="255,230,230" fill="1" layer="-1.00" shape="765.648387,1194.966127 765.060812,1201.675897 774.496673,1202.510311 774.652920,1200.758041 775.601570,1199.215080 780.898220,1199.678067 781.421972,1201.138708 781.246160,1203.112787 789.144760,1203.795618 789.732489,1197.074748 782.205647,1196.418564 765.648387,1194.966127"/>
    <poly id="250139164" type="building.yes" color="255,230,230" fill="1" layer="-1.00" shape="839.168578,1284.762187 839.071545,1285.804628 837.318503,1286.727342 837.163703,1288.357505 838.334674,1289.437317 838.179874,1291.067480 838.357166,1291.091805 854.727657,1292.586585 855.311060,1286.232037 839.168578,1284.762187"/>
    <poly id="250139165" type="building.yes" color="255,230,230" fill="1" layer="-1.00" shape="722.787814,1202.325432 722.217352,1208.313771 736.813376,1209.709375 737.035829,1207.369482 737.812581,1206.057608 737.957578,1204.538347 737.223333,1203.708017 722.787814,1202.325432"/>
    <poly id="250139166" type="building.yes" color="255,230,230" fill="1" layer="-1.00" shape="723.396474,1195.971179 722.787814,1202.325432 737.223333,1203.708017 737.455833,1201.235018 738.054330,1200.687062 738.451758,1199.981274 738.549540,1199.582765 738.588136,1199.183549 738.470856,1198.382794 738.314716,1198.003456 737.832005,1197.353765 723.396474,1195.971179"/>
    <poly id="250139167" type="building.yes" color="255,230,230" fill="1" layer="-1.00" shape="766.216532,1188.467064 765.648387,1194.966127 782.205647,1196.418564 782.773806,1189.919503 766.216532,1188.467064"/>
    <poly id="250139168" type="building.yes" color="255,230,230" fill="1" layer="-1.00" shape="724.005134,1189.616926 723.396474,1195.971179 737.832005,1197.353765 737.996566,1195.612696 738.581203,1194.809225 738.789698,1194.345426 739.021073,1193.382304 738.982278,1192.382649 738.680707,1191.435364 738.440677,1190.999513 724.005134,1189.616926"/>
    <poly id="250139169" type="building.yes" color="255,230,230" fill="1" layer="-1.00" shape="766.715276,1182.822037 766.216532,1188.467064 782.773806,1189.919503 783.272563,1184.274477 766.715276,1182.822037"/>
    <poly id="250139170" type="building.yes" color="255,230,230" fill="1" layer="-1.00" shape="724.564623,1183.839397 724.005134,1189.616926 738.440677,1190.999513 738.585012,1189.535756 739.572882,1188.248608 739.755547,1186.407836 738.883894,1185.753498 738.932536,1185.221177 724.564623,1183.839397"/>
    <poly id="250139171" type="building.yes" color="255,230,230" fill="1" layer="-1.00" shape="767.244427,1176.755492 766.715276,1182.822037 783.272563,1184.274477 783.801728,1178.207933 767.244427,1176.755492"/>
    <poly id="250139172" type="building.yes" color="255,230,230" fill="1" layer="-1.00" shape="725.163239,1177.618250 724.564623,1183.839397 738.932536,1185.221177 739.126176,1183.169595 739.451455,1182.840417 739.925909,1182.057834 740.156488,1181.161316 740.099722,1180.250263 739.854420,1179.547897 739.531164,1179.000031 725.163239,1177.618250"/>
    <poly id="250139173" type="building.yes" color="255,230,230" fill="1" layer="-1.00" shape="803.510584,1283.147826 802.948515,1289.136262 816.851845,1290.457132 817.161038,1287.230107 817.870472,1287.305203 818.140402,1284.532896 803.510584,1283.147826"/>
    <poly id="250139174" type="building.yes" color="255,230,230" fill="1" layer="-1.00" shape="880.534743,1287.777284 879.973277,1293.710212 896.064339,1295.235046 896.182578,1295.247564 896.744057,1289.314637 880.534743,1287.777284"/>
    <poly id="250139175" type="building.yes" color="255,230,230" fill="1" layer="-1.00" shape="725.733970,1171.607711 725.163239,1177.618250 739.531164,1179.000031 739.714625,1177.092655 740.039770,1176.774578 740.531004,1176.003297 740.752995,1175.117779 740.696228,1174.206725 740.566117,1173.772188 740.110361,1172.989593 725.733970,1171.607711"/>
    <poly id="250139176" type="building.yes" color="255,230,230" fill="1" layer="-1.00" shape="767.802395,1170.400636 767.244427,1176.755492 783.801728,1178.207933 784.359709,1171.853078 767.802395,1170.400636"/>
    <poly id="250139178" type="building.yes" color="255,230,230" fill="1" layer="-1.00" shape="726.303906,1165.663775 725.733970,1171.607711 740.110361,1172.989593 740.304665,1170.882509 740.837910,1170.133934 741.127411,1169.260325 741.146874,1168.339080 740.895371,1167.447904 740.680309,1167.045658 726.303906,1165.663775"/>
    <poly id="250139179" type="building.yes" color="255,230,230" fill="1" layer="-1.00" shape="768.321235,1164.489398 767.802395,1170.400636 784.359709,1171.853078 784.878695,1165.930740 768.321235,1164.489398"/>
    <poly id="250139180" type="building.yes" color="255,230,230" fill="1" layer="-1.00" shape="726.902656,1159.431527 726.303906,1165.663775 740.680309,1167.045658 740.883068,1164.938674 741.474837,1164.246310 741.682671,1163.838014 741.904662,1162.952496 741.918555,1162.497474 741.726239,1161.607006 741.279071,1160.813411 726.902656,1159.431527"/>
    <poly id="250139181" type="building.yes" color="255,230,230" fill="1" layer="-1.00" shape="768.831090,1158.622461 768.321235,1164.489398 784.878695,1165.930740 785.388430,1160.074905 768.831090,1158.622461"/>
    <poly id="250139182" type="building.yes" color="255,230,230" fill="1" layer="-1.00" shape="727.452898,1153.720501 726.902656,1159.431527 741.279071,1160.813411 741.463196,1158.850533 742.045449,1158.246872 742.252885,1157.871878 742.474081,1157.052963 742.479121,1156.631142 742.277421,1155.818276 741.820869,1155.102285 727.452898,1153.720501"/>
    <poly id="250139183" type="building.yes" color="255,230,230" fill="1" layer="-1.00" shape="769.397780,1152.245505 768.831090,1158.622461 785.388430,1160.074905 785.955267,1153.686849 769.397780,1152.245505"/>
    <poly id="250139184" type="building.yes" color="255,230,230" fill="1" layer="-1.00" shape="728.061166,1147.399550 727.452898,1153.720501 741.820869,1155.102285 742.052178,1152.729191 742.343503,1152.410710 742.775286,1151.660924 742.971249,1150.830605 742.984877,1150.397785 742.825984,1149.541022 742.429149,1148.781335 728.061166,1147.399550"/>
    <poly id="250139185" type="building.yes" color="255,230,230" fill="1" layer="-1.00" shape="769.937512,1146.001453 769.397780,1152.245505 785.955267,1153.686849 786.494881,1147.453898 769.937512,1146.001453"/>
    <poly id="250139187" type="building.yes" color="255,230,230" fill="1" layer="-1.00" shape="839.703982,1278.884456 839.185521,1279.810835 838.936429,1280.840354 838.991456,1281.895716 839.334622,1282.899014 839.168578,1284.762187 855.311060,1286.232037 855.846345,1280.365408 839.703982,1278.884456"/>
    <poly id="250139188" type="building.yes" color="255,230,230" fill="1" layer="-1.00" shape="728.659653,1141.189504 728.061166,1147.399550 742.429149,1148.781335 742.660591,1146.397141 743.185515,1145.637366 743.466429,1144.774755 743.485892,1143.853511 743.398189,1143.408377 743.027648,1142.571290 728.659653,1141.189504"/>
    <poly id="250139189" type="building.yes" color="255,230,230" fill="1" layer="-1.00" shape="770.455957,1140.123517 769.937512,1146.001453 786.494881,1147.453898 787.013471,1141.564863 771.376788,1140.201135 770.455957,1140.123517"/>
    <poly id="250139190" type="building.yes" color="255,230,230" fill="1" layer="-1.00" shape="729.220607,1135.289870 728.659653,1141.189504 743.027648,1142.571290 743.250105,1140.231397 743.765778,1139.538124 744.046029,1138.731017 744.056374,1137.865174 743.812530,1137.040702 743.588614,1136.671656 729.220607,1135.289870"/>
    <poly id="250139191" type="building.yes" color="255,230,230" fill="1" layer="-1.00" shape="729.220607,1135.289870 743.588614,1136.671656 746.266290,1136.925692 746.885152,1130.427235 729.847910,1128.791513 729.220607,1135.289870"/>
    <poly id="250139192" type="building.yes" color="255,230,230" fill="1" layer="-1.00" shape="800.705821,1276.552926 800.608927,1277.584267 798.987133,1277.431651 798.706764,1280.370366 800.328557,1280.522982 800.115071,1282.818573 803.510584,1283.147826 818.140402,1284.532896 818.212332,1283.467951 818.038797,1282.422274 817.850303,1281.920424 817.320192,1280.992607 816.585167,1280.228871 816.788477,1278.077487 800.705821,1276.552926"/>
    <poly id="250139193" type="building.yes" color="255,230,230" fill="1" layer="-1.00" shape="881.115378,1281.655849 880.534743,1287.777284 896.744057,1289.314637 897.324706,1283.193203 881.115378,1281.655849"/>
    <poly id="250139194" type="building.yes" color="255,230,230" fill="1" layer="-1.00" shape="840.391580,1273.008546 840.274849,1274.283896 838.913130,1275.011451 838.748812,1276.730318 839.840279,1277.387297 839.703982,1278.884456 855.846345,1280.365408 856.390351,1274.476678 840.391580,1273.008546"/>
    <poly id="250139195" type="building.yes" color="255,230,230" fill="1" layer="-1.00" shape="801.247394,1270.864004 800.705821,1276.552926 816.788477,1278.077487 817.119422,1277.981526 817.699017,1277.599882 818.086401,1277.027203 818.183390,1276.695299 818.183166,1276.006963 818.077231,1275.672632 817.686609,1275.101752 817.107453,1274.739557 817.330063,1272.388566 801.247394,1270.864004"/>
    <poly id="250139196" type="building.yes" color="255,230,230" fill="1" layer="-1.00" shape="881.676846,1275.722922 881.115378,1281.655849 897.324706,1283.193203 897.886186,1277.260276 881.676846,1275.722922"/>
    <poly id="250139197" type="building.yes" color="255,230,230" fill="1" layer="-1.00" shape="840.935840,1267.097614 840.391580,1273.008546 856.390351,1274.476678 856.934756,1268.554647 840.935840,1267.097614"/>
    <poly id="250139198" type="building.yes" color="255,230,230" fill="1" layer="-1.00" shape="801.818316,1264.842368 801.247394,1270.864004 817.330063,1272.388566 818.668405,1271.494195 818.871982,1269.320609 817.717384,1268.285405 817.900997,1266.366931 801.818316,1264.842368"/>
    <poly id="250139199" type="building.yes" color="255,230,230" fill="1" layer="-1.00" shape="882.257350,1269.612587 881.676846,1275.722922 897.886186,1277.260276 898.466704,1271.149943 882.257350,1269.612587"/>
    <poly id="250139200" type="building.yes" color="255,230,230" fill="1" layer="-1.00" shape="841.480498,1261.153381 840.935840,1267.097614 856.934756,1268.554647 857.470839,1262.621415 841.480498,1261.153381"/>
    <poly id="250139201" type="building.yes" color="255,230,230" fill="1" layer="-1.00" shape="802.407608,1258.698828 801.818316,1264.842368 817.900997,1266.366931 818.481847,1260.223291 802.407608,1258.698828"/>